%nprocshared=12
%chk=stuff.chk
#p opt=modredundant freq wb97xd/TZVP nosymm

Bare Site

0 1
Si	-1.211998	-0.972149	-1.929814	
O	-0.140146	-0.028675	-1.167168	
O	-0.799353	-2.555718	-1.85646	
H	0.621531	-0.462812	-0.77137	
Si	0.416301	-3.456799	-1.302602	
O	1.453346	-2.433414	-0.552785	
H	2.252815	-2.765091	-0.144842	
O(Iso=100000000)	-2.7156031803751635	-0.7997728410260181	-1.2776162375334699	
O(Iso=100000000)	-1.3530627580126031	-0.5494969057191663	-3.5164361797412487	
O(Iso=100000000)	-0.12406145258230111	-4.615912116385482	-0.26319389763482426	
O(Iso=100000000)	1.1670937081252668	-4.2642508808719555	-2.5274431201058967	
H(Iso=100000000)	-3.3531668420874845	-1.3521793943660545	-1.7273890436155612	
H(Iso=100000000)	-1.9906264197249242	-1.1019034590592027	-3.9662089858233402	
H(Iso=100000000)	-0.7618061806471368	-5.168359810929837	-0.7126593652940614	
H(Iso=100000000)	0.5293489800604311	-4.81669857541631	-2.976908587765134	

8 F
9 F
10 F
11 F
12 F
13 F
14 F
15 F










